<?xml version="1.0" encoding="UTF-8"?>

<routes xmlns:xsi="http://www.w3.org/2001/XMLSchema-instance" xsi:noNamespaceSchemaLocation="http://sumo.dlr.de/xsd/routes_file.xsd">

    <vType id="dft_type" sigma="0">
        <param key="parking.distance.weight" value="1"/> 
    </vType>

    <route edges="gneE0 gneE1 gneE2 gneE3" id="route0"/>
    <route edges="gneE0 gneE1 gneE2 gneE3" id="route1"/>
    <route edges="gneE2" id="stop0">
        <stop lane="gneE2_0" startPos="0" endPos="1" duration="100"/>
    </route>

    <vehicle id="0" type="dft_type" depart="0.00" route="route1" departLane="0" arrivalLane = "0"  color="yellow">
        <stop lane="gneE0_0" startPos="0" endPos="1" duration="1"/>
    </vehicle>
    <vehicle id="1" type="dft_type" depart="0.00" route="route1" departLane="0" arrivalLane = "0"  color="yellow"/>
    <vehicle id="2" type="dft_type" depart="0.00" route="route0" departLane="1" arrivalLane = "1"  color="green"/>
    <vehicle id="3" type="dft_type" arrivalLane="0" depart="0.00" route="stop0" color="red"/>


</routes>
