<?xml version="1.0" encoding="UTF-8"?>

<!-- generated on 2021-12-03 14:38:51 by Eclipse SUMO GUI Version 1.10.0
<configuration xmlns:xsi="http://www.w3.org/2001/XMLSchema-instance" xsi:noNamespaceSchemaLocation="http://sumo.dlr.de/xsd/sumoConfiguration.xsd">

    <input>
        <net-file value="/home/wifi/v2x-fall-2021/usecases/sumocfg/uc03a/net.xml"/>
        <route-files value="/home/wifi/v2x-fall-2021/usecases/sumocfg/uc03a/rou.xml"/>
    </input>

    <output>
        <tripinfo-output value="/home/wifi/v2x-fall-2021/usecases/sumocfg/uc03a/maptripinfo.out.xml"/>
    </output>

    <time>
        <begin value="0"/>
        <end value="100000"/>
        <step-length value="0.1"/>
    </time>

    <processing>
        <time-to-teleport value="-1"/>
    </processing>

    <report>
        <xml-validation value="never"/>
        <xml-validation.routes value="never"/>
        <no-step-log value="true"/>
    </report>

    <traci_server>
        <remote-port value="8813"/>
        <num-clients value="2"/>
    </traci_server>

    <gui_only>
        <gui-settings-file value="/home/wifi/v2x-fall-2021/usecases/sumocfg/uc03a/gui-settings.cfg"/>
        <start value="false"/>
        <delay value="1000"/>
        <tracker-interval value="0.1"/>
    </gui_only>

</configuration>
